
.MODEL T309 PNP (
+   IS =  1.0366e-15
+   BF =  80
+   BR =  16.116
+   RB =  3.2133
+   RE =  1.9597
+   RC =  1.1393
+   CJS =  0
+   CJE =  2.0636e-14
+   CJC =  2.6904e-12
+   VJE =  0.84456
+   VJC =  1.0282
+   TF =  5.4303e-11
+   TR =  3.4233e-10
+   MJE =  0.68352
+   MJC =  0.5401
+   VA =  8.4866
+   ISE =  1.6295e-14
+   IKF =  0.47497
+   NE =  1.3702
+   NF =  1.0313
+   NR =  1.2907
+   VAR =  9.5149
+   IKR =  0.012081
+   ISC =  9.4971e-17
+   NC =  1.038
+   IRB =  0.00046855
+   RBM =  2.0822
+   XTF =  0.27447
+   VTF =  0.19311
+   ITF =  0.0030573
+   PTF =  0
+   XCJC =  0.075977
+   VJS =  0.75
+   MJS =  0
+   XTB =  0
+   EG =  1.11
+   XTI =  3
+   KF =  0
+   AF =  1
+   FC =  0.54298
+   TNOM =  27
)
