
.MODEL T122 NPN (
+   IS =  4.7055e-15
+   BF =  101.3
+   BR =  20.436
+   RB =  11.511
+   RE =  0.95265
+   RC =  10
+   CJS =  0
+   CJE =  2.1553e-14
+   CJC =  8.1666e-13
+   VJE =  0.81319
+   VJC =  0.79678
+   TF =  3.7049e-11
+   TR =  1.2601e-09
+   MJE =  0.52671
+   MJC =  0.3138
+   VA =  45
+   ISE =  1.536e-14
+   IKF =  0.054272
+   NE =  1.3727
+   NF =  0.81505
+   NR =  1.4775
+   VAR =  4.6607
+   IKR =  0.015746
+   ISC =  1.2944e-15
+   NC =  0.86254
+   IRB =  4.2443e-05
+   RBM =  7.5995
+   XTF =  0.24396
+   VTF =  0.29226
+   ITF =  0.0031948
+   PTF =  0
+   XCJC =  0.24494
+   VJS =  0.75
+   MJS =  0
+   XTB =  0
+   EG =  1.11
+   XTI =  3
+   KF =  0
+   AF =  1
+   FC =  0.57696
+   TNOM =  27
)
