
.MODEL Ä220 D (
+   IS =  1e-06
+   RS =  20
+   CJO =  1.5e-11
+   VJ =  0.75
+   TT =  5e-07
+   M =  0.33
+   BV =  0
+   N =  1
+   EG =  1.11
+   XTI =  3
+   KF =  0
+   AF =  1
+   FC =  0.5
+   IBV =  0.001
+   TNOM =  27
)
