
.MODEL KD522A D (
+   IS =  1.42e-18
+   RS =  11
+   CJO =  4e-12
+   VJ =  0.1
+   TT =  5.76e-09
+   M =  0.333
+   BV =  40
+   N =  1.7
+   EG =  1.11
+   XTI =  3
+   KF =  0
+   AF =  1
+   FC =  0.5
+   IBV =  0.001
+   TNOM =  27
)
