
.MODEL NDF9406 NJF (
+   VTO =  -2.25
+   BETA =  0.001004
+   LAMBDA =  0.002
+   RD =  1
+   RS =  1
+   IS =  3.273e-14
+   CGD =  4.2e-12
+   CGS =  2.1e-12
+   PB =  1
+   B =  1
+   KF =  5.278e-18
+   AF =  1
+   FC =  0.5
+   TNOM =  27
)
